<?xml version="1.0"?>
<node>
	<param name="version" type="float" value="1.1000000000000001" />
	<description>Simple node</description>
</node>
